1015. 298.7 17.0
   0.0 298.700 17.00 -8.750 0.0
 520.0 298.700 16.30 -8.750 0.0
 700.0 299.394 15.25 -8.750 0.0
1480.0 302.400 10.70 -7.346 0.0
2000.0 308.200  4.20 -6.410 0.0
3000.0 311.850  3.00 -4.610 0.0
