1000.0 300.0 0.0
   0.0 300.0 0.0 10.0 0.0
1000.0 300.0 0.0 10.0 0.0
