1000. 300.0 1.0
    0.0 300.0 1.0 0.0 0.0
10000.0 300.0 1.0 0.0 0.0

