1013.2 265.0 0.0
   0.0 265.0 0.0 10.0 0.0
 100.0 265.0 0.0 10.0 0.0
