 1000.0  300.0  0.0
    0.0  300.0  0.0  10.0  0.0
10000.0  330.0  0.0  10.0  0.0
20000.0  360.0  0.0  10.0  0.0
30000.0  390.0  0.0  10.0  0.0
