1000.0 290.0 0.0
   0.0 290.0 0.0  5.0 0.0
1000.0 290.0 0.0 15.0 0.0
